examples/national_grid/data/ireland/models/2008/sv2014.raw
<!DOCTYPE HTML PUBLIC "-//W3C//DTD HTML 4.0 Transitional//EN">
<!-- saved from url=(0084)http://www.eirgrid.com/EirgridPortal/uploads/Publications/Summer%20Valley%202014.raw -->
<HTML><HEAD>
<META http-equiv=Content-Type content="text/html; charset=windows-1252">
<META content="MSHTML 6.00.2900.3492" name=GENERATOR></HEAD>
<BODY><PRE>0,   100.00          / PSS/E-30.3    WED, NOV 26 2008  13:14
/ CASE: 2014;  SUMMER 01/07/2014; FORECAST STATEMENT 2008 -
/ FS08_SEP08 - MEMO  GALLERY_T;  16:46:37  TUESDAY, SEPTEMBE
    10,'F_M_____    ',  38.0000,1,     0.000,     0.000,   1,   3,1.04851,  -2.1334,   2
    11,'FMN_LOOP    ',  38.0000,1,     0.000,     0.000,   1,   1,1.03555,  -0.0733,   2
    12,'BEDFORD     ',  38.0000,1,     0.000,     0.000,   1,   1,1.04078,  -1.8072,   2
    13,'M_R_____    ',  38.0000,1,     0.000,     0.000,   1,   1,1.03380,  -2.4878,   2
    14,'F_I_____    ',  38.0000,1,     0.000,     0.000,   1,   3,1.04656,  -0.0242,   2
    15,'I_M_____    ',  38.0000,1,     0.000,     0.000,   1,   1,1.04295,  -1.2228,   2
  1021,'ARDNACRU    ', 110.0000,1,     0.000,     0.000,   4,   1,1.00843,   9.0470,   1
  1041,'AGHADA      ', 110.0000,1,     0.000,     0.000,   3,   1,1.01585,   5.1498,   1
  1042,'AGHADA      ', 220.0000,1,     0.000,     0.000,   3,   1,1.01989,  13.0214,   1
  1052,'AGHADA2     ', 220.0000,1,     0.000,     0.000,   3,   1,1.02696,   4.9607,   1
  1061,'ARIGNA      ', 110.0000,1,     0.000,     0.000,   9,   1,1.00688,  10.9379,   2
  1062,'AGHADA3     ', 220.0000,1,     0.000,     0.000,   3,   1,1.02696,   4.9607,   1
  1071,'AGANNYGA    ', 110.0000,1,     0.000,     0.000,   4,   1,1.00729,   9.0243,   1
  1072,'AGHADA4     ', 220.0000,1,     0.000,     0.000,   3,   1,1.01991,  13.0574,   1
  1081,'AHANE       ', 110.0000,1,     0.000,     0.000,   7,   1,1.01739,   8.9954,   2
  1091,'ADAMSTOW    ', 110.0000,1,     0.000,     0.000,   1,   1,1.05158,   1.8895,   2
  1101,'ANNER       ', 110.0000,1,     0.000,     0.000,   5,   3,1.00887,   2.4206,   5
  1121,'ARKLOW      ', 110.0000,1,     0.000,     0.000,   6,   1,1.03564,   1.9065,   1
  1122,'ARKLOW      ', 220.0000,1,     0.000,     0.000,   6,   1,1.03470,   2.6651,   1
  1131,'ATHEA       ', 110.0000,1,     0.000,     0.000,   7,   5,1.00065,  13.2096,   4
  1141,'ATHLONE     ', 110.0000,1,     0.000,     0.000,   9,   1,0.99479,   7.3907,   1
  1161,'AUGHINIS    ', 110.0000,1,     0.000,     0.000,   7,   3,1.00000,  10.9954,   1
  1181,'ARVA        ', 110.0000,1,     0.000,     0.000,  10,   1,1.01328,   8.4354,   1
  1201,'ARTANE      ', 110.0000,1,     0.000,     0.000,   1,   1,1.06395,   1.9192,   2
  1221,'ATHY        ', 110.0000,1,     0.000,     0.000,   8,   1,1.01763,   3.1581,   1
  1231,'BALLYWAT    ', 110.0000,1,     0.000,     0.000,   6,   1,1.02208,   3.3433,   4
  1241,'BALLYCUM    ', 110.0000,1,     0.000,     0.000,   7,   1,1.00854,   9.1912,   1
  1251,'BOOLTIAG    ', 110.0000,1,     0.000,     0.000,   4,   1,1.00000,   9.2153,   2
  1271,'BALTRASN    ', 110.0000,1,     0.000,     0.000,  10,   1,1.03278,   3.6813,   1
  1281,'BALLYLIC    ', 110.0000,1,     0.000,     0.000,   3,   1,1.00565,   7.6553,   2
  1301,'BALLYBEG    ', 110.0000,1,     0.000,     0.000,   6,   1,1.03741,   1.3914,   1
  1321,'BLAKE       ', 110.0000,1,     0.000,     0.000,   8,   1,1.01168,   3.1614,   2
  1331,'BALLYCAD    ', 110.0000,1,     0.000,     0.000,   6,   1,1.01956,   3.6264,   1
  1341,'BINBANE     ', 110.0000,1,     0.000,     0.000,   9,   1,1.00853,  15.8823,   2
  1351,'BARODA      ', 110.0000,1,     0.000,     0.000,   8,   1,1.00952,   3.2211,   1
  1361,'BALLYDIN    ', 110.0000,1,     0.000,     0.000,   5,   1,1.01059,   2.3630,   1
  1371,'BALLYMUR    ', 110.0000,1,     0.000,     0.000,   4,   1,0.99878,   8.3700,   2
  1381,'BARNAHEL    ', 110.0000,1,     0.000,     0.000,   3,   1,1.01284,   5.0748,   1
  1391,'BARNAHEL    ', 110.0000,1,     0.000,     0.000,   3,   1,1.00981,   4.9798,   1
  1401,'BELLACOR    ', 110.0000,1,     0.000,     0.000,   9,   1,1.00759,   9.8223,   1
  1421,'BLACKROC    ', 110.0000,1,     0.000,     0.000,   1,   2,1.04221,   0.7214,   2
  1441,'BANDON      ', 110.0000,1,     0.000,     0.000,   3,   1,1.00324,   5.7103,   1
  1461,'BARRYMOR    ', 110.0000,1,     0.000,     0.000,   5,   1,1.01156,   5.0109,   2
  1471,'BALGRIFF    ', 110.0000,1,     0.000,     0.000,   1,   1,1.01864,   2.5625,   2
  1472,'BALGRIFF    ', 220.0000,1,     0.000,     0.000,   1,   1,1.06651,   3.7309,   2
  1481,'BUTLERST    ', 110.0000,1,     0.000,     0.000,   5,   1,1.01287,   2.0133,   1
  1501,'BRINNY      ', 110.0000,1,     0.000,     0.000,   3,   1,1.00309,   5.7011,   5
  1511,'BRINNY      ', 110.0000,1,     0.000,     0.000,   3,   1,1.00309,   5.7016,   5
  1541,'BANOGE      ', 110.0000,1,     0.000,     0.000,   6,   1,1.02734,   2.3058,   1
  1571,'BUNBEG      ', 110.0000,1,     0.000,     0.000,   9,   1,1.00509,  15.7261,   2
  1581,'CABRA       ', 110.0000,1,     0.000,     0.000,   1,   2,1.06356,   1.8913,   2
  1601,'CLASHAVO    ', 110.0000,1,     0.000,     0.000,   3,   1,1.01478,   8.4789,   1
  1602,'CLASHAVO    ', 220.0000,1,     0.000,     0.000,   3,   1,1.02466,  11.2436,   1
  1611,'CLONKEEN    ', 110.0000,1,     0.000,     0.000,   7,   1,1.00710,  10.6376,   1
  1621,'COOLROE     ', 110.0000,1,     0.000,     0.000,   3,   1,1.00946,   6.6123,   1
  1631,'CORDERRY    ', 110.0000,1,     0.000,     0.000,   9,   1,1.00540,  11.9922,   1
  1641,'CASHLA      ', 110.0000,1,     0.000,     0.000,   9,   1,1.02416,   8.4660,   1
  1642,'CASHLA      ', 220.0000,1,     0.000,     0.000,   9,   1,1.03311,  10.0552,   1
  1651,'CLAHANE     ', 110.0000,1,     0.000,     0.000,   7,   5,1.00503,  12.4808,   1
  1661,'CASTLEBA    ', 110.0000,1,     0.000,     0.000,   9,   1,1.01738,   8.2469,   1
  1681,'CARRIGAD    ', 110.0000,1,     0.000,     0.000,   3,   1,1.01416,   7.8152,   1
  1691,'CENTRAL     ', 110.0000,1,     0.000,     0.000,   1,   1,1.04251,   0.8043,   1
  1701,'CATH_FAL    ', 110.0000,1,     0.000,     0.000,   9,   1,1.00665,  14.7189,   1
  1711,'CROMCAST    ', 110.0000,1,     0.000,     0.000,   1,   1,1.01870,   2.5302,   1
  1721,'CAHIR       ', 110.0000,1,     0.000,     0.000,   5,   1,1.00865,   3.4838,   1
  1731,'CROMCAST    ', 110.0000,1,     0.000,     0.000,   1,   1,1.01870,   2.5302,   1
  1741,'CARRICKM    ', 110.0000,1,     0.000,     0.000,   2,   2,1.04253,   0.8100,   2
  1742,'CARRICKM    ', 220.0000,1,     0.000,     0.000,   2,   2,1.04566,   2.7708,   1
  1751,'CARRICKM    ', 110.0000,1,     0.000,     0.000,   2,   1,1.04566,   2.7708,   1
  1761,'CLIFF       ', 110.0000,1,     0.000,     0.000,   9,   1,1.00656,  14.8343,   1
  1781,'CASTLEFA    ', 110.0000,1,     0.000,     0.000,   7,   3,0.99961,  10.9751,   5
  1791,'CASTLEFA    ', 110.0000,1,     0.000,     0.000,   7,   3,0.99960,  10.9739,   5
  1801,'COOKSTOW    ', 110.0000,1,     0.000,     0.000,   1,   2,1.05471,   1.3462,   2
  1811,'COOKSTOW    ', 110.0000,1,     0.000,     0.000,   1,   1,1.03992,   0.4321,   1
  1821,'CLOON       ', 110.0000,1,     0.000,     0.000,   9,   1,1.01577,   8.0161,   1
  1831,'CAMUS       ', 110.0000,1,     0.000,     0.000,   9,   1,1.02119,   7.6760,   2
  1841,'CRANE       ', 110.0000,1,     0.000,     0.000,   6,   1,1.02160,   3.0797,   1
  1851,'CHERRYWO    ', 110.0000,1,     0.000,     0.000,   2,   1,1.04193,   0.7684,   1
  1861,'CARICKON    ', 110.0000,1,     0.000,     0.000,   9,   1,1.01039,   9.4456,   1
  1871,'COLLEGE     ', 110.0000,1,     0.000,     0.000,   2,   1,1.04026,   3.2283,   1
  1881,'CHARLEVI    ', 110.0000,1,     0.000,     0.000,   3,   1,1.00839,   7.9459,   1
  1901,'CARLOW      ', 110.0000,1,     0.000,     0.000,   6,   1,1.03120,   2.4614,   1
  1921,'COW CROS    ', 110.0000,1,     0.000,     0.000,   3,   1,1.01364,   5.2283,   1
  1931,'CUNGHILL    ', 110.0000,1,     0.000,     0.000,   9,   1,1.00494,  11.8980,   4
  1941,'CUSHALIN    ', 110.0000,1,     0.000,     0.000,   8,   1,1.00000,   5.2608,   1
  1951,'CARROWBE    ', 110.0000,1,     0.000,     0.000,   9,   1,1.01290,   7.9427,   1
  1961,'CASTLEVI    ', 110.0000,1,     0.000,     0.000,   3,   1,1.01391,   5.6589,   1
  1971,'COOMAGEA    ', 110.0000,1,     0.000,     0.000,   7,   1,1.00683,  10.9440,   4
  1981,'CORRACLA    ', 110.0000,1,     0.000,     0.000,   9,   1,1.00217,  10.3533,   1
  1991,'CASTLEDO    ', 110.0000,1,     0.000,     0.000,   6,   1,1.02106,   3.4376,   1
  2001,'CULLENAG    ', 110.0000,1,     0.000,     0.000,   5,   1,1.01626,   2.4028,   1
  2002,'CULLENAG    ', 220.0000,1,     0.000,     0.000,   5,   1,1.02321,   3.1985,   1
  2021,'CITY WES    ', 110.0000,1,     0.000,     0.000,   1,   1,1.05415,   1.3159,   2
  2031,'CHARLESL    ', 110.0000,1,     0.000,     0.000,   6,   1,1.03866,   0.9521,   1
  2041,'CORDUFF     ', 110.0000,1,     0.000,     0.000,   2,   1,1.04079,   3.2919,   1
  2042,'CORDUFF     ', 220.0000,1,     0.000,     0.000,   2,   1,1.06147,   4.1224,   1
  2051,'CORDUFF     ', 110.0000,1,     0.000,     0.000,   2,   1,1.04079,   3.2919,   1
  2081,'DUNKETTL    ', 110.0000,4,     0.000,     0.000,   3,   1,1.00000,   0.0000,   5
  2101,'DUNDALK     ', 110.0000,1,     0.000,     0.000,  10,   1,1.04823,   7.0900,   2
  2121,'DRUMLINE    ', 110.0000,1,     0.000,     0.000,   4,   1,0.99965,   8.4170,   1
  2141,'DUNGARVA    ', 110.0000,1,     0.000,     0.000,   5,   1,1.01534,   3.4515,   1
  2161,'DOON        ', 110.0000,1,     0.000,     0.000,   5,   1,1.00947,   2.4567,   1
  2181,'DRYBRIDG    ', 110.0000,1,     0.000,     0.000,  10,   1,1.02563,   4.4256,   1
  2202,'DUNSTOWN    ', 220.0000,1,     0.000,     0.000,   2,   7,1.04133,   3.9825,   1
  2204,'DUNSTOWN    ', 380.0000,1,     0.000,     0.000,   2,   1,1.03927,   7.2914,   1
  2221,'DUNMANWA    ', 110.0000,1,     0.000,     0.000,   3,   1,1.00815,   7.2745,   1
  2231,'DERRYBRI    ', 110.0000,1,     0.000,     0.000,   4,   1,1.00918,   9.3639,   2
  2241,'DALLOW      ', 110.0000,1,     0.000,     0.000,   5,   1,0.99780,   6.9445,   2
  2251,'DARDISTO    ', 110.0000,1,     0.000,     0.000,   1,   1,1.01899,   2.5335,   1
  2261,'DERRYIRO    ', 110.0000,1,     0.000,     0.000,   8,   1,1.01631,   3.1406,   1
  2281,'DALTON      ', 110.0000,1,     0.000,     0.000,   9,   1,1.01491,   8.1043,   1
  2301,'DUNFIRTH    ', 110.0000,1,     0.000,     0.000,   8,   1,1.02647,   2.8492,   2
  2321,'DRUMKEEN    ', 110.0000,1,     0.000,     0.000,   9,   1,1.01893,  17.1901,   1
  2361,'ENNIS       ', 110.0000,1,     0.000,     0.000,   4,   1,1.00272,   8.5879,   1
  2481,'FASS EAS    ', 110.0000,1,     0.000,     0.000,   2,   2,1.04036,   0.6980,   2
  2491,'FASS WES    ', 110.0000,1,     0.000,     0.000,   2,   2,1.04046,   0.7035,   2
  2521,'FLAGFORD    ', 110.0000,1,     0.000,     0.000,   9,   1,1.01101,   9.4070,   1
  2522,'FLAGFORD    ', 220.0000,1,     0.000,     0.000,   9,   7,1.02669,  10.1671,   1
  2531,'FINNSTOW    ', 110.0000,1,     0.000,     0.000,   1,   1,1.05159,   1.8914,   1
  2532,'FINNSTOW    ', 220.0000,1,     0.000,     0.000,   2,   1,1.04880,   3.1603,   1
  2541,'FRN ST A    ', 110.0000,1,     0.000,     0.000,   1,   2,1.05391,   0.3838,   2
  2551,'FRN ST B    ', 110.0000,1,     0.000,     0.000,   1,   2,1.05522,   1.3700,   2
  2561,'FIN_URBA    ', 110.0000,1,     0.000,     0.000,   2,   2,1.06453,   2.0141,   1
  2562,'FINGLAS     ', 220.0000,1,     0.000,     0.000,   2,   7,1.06424,   3.8520,   1
  2571,'FIN_RURA    ', 110.0000,1,     0.000,     0.000,   2,   2,1.01849,   2.5583,   1
  2581,'FIN_SUBU    ', 110.0000,1,     0.000,     0.000,   2,   1,1.04025,   3.2086,   1
  2591,'FIN_OPEN    ', 110.0000,1,     0.000,     0.000,   2,   1,1.06424,   3.8520,   2
  2671,'GARVAGH     ', 110.0000,1,     0.000,     0.000,   9,   1,1.00395,  12.3792,   4
  2681,'GILRA       ', 110.0000,1,     0.000,     0.000,   9,   3,1.00753,   9.2026,   2
  2701,'GLASMORE    ', 110.0000,1,     0.000,     0.000,   1,   2,1.01620,   2.1905,   2
  2721,'GRIFFINR    ', 110.0000,1,     0.000,     0.000,   2,   2,1.02654,   2.7504,   2
  2731,'GLANLEE     ', 110.0000,1,     0.000,     0.000,   7,   5,1.00684,  10.9635,   4
  2741,'GREAT IS    ', 110.0000,1,     0.000,     0.000,   6,   1,1.01566,   2.1542,   1
  2742,'GREAT IS    ', 220.0000,1,     0.000,     0.000,   6,   7,1.02415,   2.9928,   1
  2761,'GRANGE      ', 110.0000,1,     0.000,     0.000,   1,   2,1.01806,   2.5064,   2
  2771,'GARROW      ', 110.0000,1,     0.000,     0.000,   7,   1,1.00711,  10.7975,   7
  2781,'GALWAY      ', 110.0000,1,     0.000,     0.000,   9,   1,1.01897,   7.9884,   1
  2801,'GOLAGH      ', 110.0000,1,     0.000,     0.000,   9,   1,1.01204,  15.8907,   4
  2821,'GORTAWEE    ', 110.0000,1,     0.000,     0.000,   9,   1,1.00036,   9.5487,   1
  2841,'GORMAN      ', 110.0000,1,     0.000,     0.000,  10,   1,1.02327,   5.2337,   1
  2842,'GORMAN      ', 220.0000,1,     0.000,     0.000,  10,   1,1.03539,   6.3173,   1
  2852,'GLANAGOW    ', 220.0000,1,     0.000,     0.000,   3,   1,1.02695,   4.9592,   1
  2861,'GRANGE C    ', 110.0000,1,     0.000,     0.000,   1,   1,1.05148,   1.8783,   2
  2881,'GLENLARA    ', 110.0000,1,     0.000,     0.000,   3,   1,1.00616,   8.4967,   2
  2941,'HAROLDS     ', 110.0000,1,     0.000,     0.000,   1,   2,1.05404,   0.3926,   2
  2951,'HEUSTON     ', 110.0000,1,     0.000,     0.000,   1,   1,1.05526,   1.3778,   1
  2962,'HUNTSTOW    ', 220.0000,1,     0.000,     0.000,   2,   1,1.06425,   3.8519,   4
  2972,'HUNTSTOW    ', 220.0000,1,     0.000,     0.000,   2,   1,1.06159,   4.1217,   4
  2981,'HARNETTS    ', 110.0000,1,     0.000,     0.000,   3,   1,1.01388,   7.8315,   2
  3061,'INISCARR    ', 110.0000,1,     0.000,     0.000,   3,   1,1.00995,   6.8246,   1
  3081,'INCH_CIT    ', 110.0000,1,     0.000,     0.000,   1,   2,1.05526,   1.3996,   2
  3082,'INCHICOR    ', 220.0000,1,     0.000,     0.000,   2,   2,1.05359,   2.5575,   1
  3091,'INCH_COU    ', 110.0000,1,     0.000,     0.000,   1,   1,1.05213,   1.9322,   2
  3101,'IKERRIN     ', 110.0000,1,     0.000,     0.000,   5,   1,0.99628,   4.4071,   2
  3122,'IRISHTOW    ', 220.0000,1,     0.000,     0.000,   2,   1,1.05056,   2.6569,   1
  3201,'KNOCKRAH    ', 110.0000,1,     0.000,     0.000,   3,   1,1.01612,   6.0052,   1
  3202,'KNOCKRAH    ', 220.0000,1,     0.000,     0.000,   3,   7,1.01943,  11.7007,   1
  3211,'KNOCKRAH    ', 110.0000,1,     0.000,     0.000,   3,   1,1.01943,  11.7007,   1
  3212,'KNOCKRAH    ', 220.0000,1,     0.000,     0.000,   3,   1,1.02500,   4.8662,   1
  3221,'KILBARRY    ', 110.0000,1,     0.000,     0.000,   3,   1,1.01024,   5.7455,   1
  3241,'KILTEEL     ', 110.0000,1,     0.000,     0.000,   8,   1,1.01373,   2.7157,   2
  3261,'KILKENNY    ', 110.0000,1,     0.000,     0.000,   6,   1,1.01300,   1.3295,   1
  3281,'KILLONAN    ', 110.0000,1,     0.000,     0.000,   7,   1,1.01743,   9.0031,   1
  3282,'KILLONAN    ', 220.0000,1,     0.000,     0.000,   7,   7,1.02151,  10.1509,   1
  3301,'KNOCKERA    ', 110.0000,1,     0.000,     0.000,   7,   1,1.00201,  10.6096,   1
  3321,'KNOCKUMB    ', 110.0000,1,     0.000,     0.000,  10,   3,1.01596,   4.9929,   5
  3341,'KELLIS      ', 110.0000,1,     0.000,     0.000,   6,   1,1.03406,   2.4138,   1
  3342,'KELLIS      ', 220.0000,1,     0.000,     0.000,   6,   1,1.02412,   3.2207,   1
  3361,'KILTOY      ', 110.0000,1,     0.000,     0.000,   9,   3,1.01884,  17.0894,   5
  3381,'KINNEGAD    ', 110.0000,1,     0.000,     0.000,   8,   1,1.01928,   2.9671,   1
  3401,'KILLOTER    ', 110.0000,1,     0.000,     0.000,   5,   1,1.01359,   2.0280,   1
  3421,'KILMORE     ', 110.0000,1,     0.000,     0.000,   1,   1,1.01869,   2.5306,   2
  3431,'KILMAHUD    ', 110.0000,1,     0.000,     0.000,   1,   1,1.05120,   1.8615,   1
  3441,'KILMURRY    ', 110.0000,1,     0.000,     0.000,   6,   1,1.01417,   1.9661,   1
  3451,'KENTSTOW    ', 110.0000,1,     0.000,     0.000,  10,   1,1.02106,   4.7820,   1
  3501,'LANESBOR    ', 110.0000,1,     0.000,     0.000,   9,   1,1.00000,   8.0521,   1
  3521,'LOUTH       ', 110.0000,1,     0.000,     0.000,  10,   1,1.05329,   7.3823,   1
  3522,'LOUTH       ', 220.0000,1,     0.000,     0.000,  10,   7,1.03591,   8.8542,   1
  3541,'LIMERICK    ', 110.0000,1,     0.000,     0.000,   7,   1,1.01056,   9.0856,   1
  3561,'LISDRUM     ', 110.0000,1,     0.000,     0.000,  10,   1,1.03038,   7.4702,   1
  3572,'LONGPOIN    ', 220.0000,1,     0.000,     0.000,   3,   1,1.02000,  13.1067,   1
  3581,'LETTERKE    ', 110.0000,1,     0.000,     0.000,   9,   1,1.01883,  17.0897,   1
  3601,'LIBERTY     ', 110.0000,1,     0.000,     0.000,   3,   1,1.00996,   5.4595,   2
  3611,'LIBERTY     ', 110.0000,1,     0.000,     0.000,   3,   1,1.01001,   5.4632,   2
  3621,'LISHEEN     ', 110.0000,1,     0.000,     0.000,   5,   1,0.99675,   2.8552,   5
  3641,'LODGEWOO    ', 110.0000,1,     0.000,     0.000,   6,   1,1.02129,   3.3503,   1
  3642,'LODGEWOO    ', 220.0000,1,     0.000,     0.000,   6,   1,1.02898,   2.9413,   1
  3751,'MISERY H    ', 110.0000,1,     0.000,     0.000,   1,   1,1.05424,   0.4225,   2
  3761,'MACETOWN    ', 110.0000,1,     0.000,     0.000,   1,   2,1.03960,   3.1784,   1
  3772,'CAVAN       ', 220.0000,1,     0.000,     0.000,  10,   1,1.04002,   9.9492,   1
  3774,'CAVAN       ', 380.0000,1,     0.000,     0.000,  10,   1,1.04585,  11.6053,   1
  3781,'MCDERMOT    ', 110.0000,1,     0.000,     0.000,   1,   2,1.06361,   1.8875,   2
  3801,'MIDLETON    ', 110.0000,1,     0.000,     0.000,   3,   1,1.01271,   5.5453,   1
  3821,'MEATH HI    ', 110.0000,1,     0.000,     0.000,  10,   1,1.03724,   6.4931,   2
  3841,'MAYNOOTH    ', 110.0000,1,     0.000,     0.000,   2,   2,1.02755,   2.8220,   1
  3842,'MAYNOOTH    ', 220.0000,1,     0.000,     0.000,   2,   7,1.04378,   3.6152,   1
  3851,'MAYNOOTH    ', 110.0000,1,     0.000,     0.000,   2,   2,1.03611,   2.9291,   1
  3852,'MAYNOOTH    ', 220.0000,1,     0.000,     0.000,   2,   2,1.04514,   3.9899,   1
  3861,'MILLTOWN    ', 110.0000,1,     0.000,     0.000,   1,   2,1.05431,   0.4458,   2
  3871,'MILLTOWN    ', 110.0000,1,     0.000,     0.000,   1,   2,1.05441,   1.2634,   2
...
0 / END OF BUS DATA, BEGIN LOAD DATA
    10,'LD',1,   1,   1,    54.050,     7.780,     0.000,     0.000,     0.000,     0.000,   2
    11,'LD',1,   1,   1,    25.840,     2.460,     0.000,     0.000,     0.000,     0.000,   2
    12,'LD',1,   1,   1,    27.890,     8.820,     0.000,     0.000,     0.000,     0.000,   2
    13,'LD',1,   1,   1,    36.170,    11.630,     0.000,     0.000,     0.000,     0.000,   2
    14,'LD',1,   1,   1,    18.970,     5.460,     0.000,     0.000,     0.000,     0.000,   2
    15,'LD',1,   1,   1,    39.950,     7.330,     0.000,     0.000,     0.000,     0.000,   2
  1041,'LD',1,   3,   1,     1.000,     0.340,     0.000,     0.000,     0.000,     0.000,   2
  1101,'DM',1,   5,   2,    11.000,     3.840,     0.000,     0.000,     0.000,     0.000,   5
  1101,'MI',0,   5,   2,     5.620,     1.680,     0.000,     0.000,     0.000,     0.000,   5
  3621,'DM',1,   5,   2,    14.000,     4.590,     0.000,     0.000,     0.000,     0.000,   5
  4341,'DM',1,   3,   2,     0.280,     0.100,     0.000,     0.000,     0.000,     0.000,   5
 10204,'LD',1,   4,   1,    -0.220,    -0.130,     0.000,     0.000,     0.000,     0.000,   2
 10205,'LD',1,   4,   1,    24.420,     8.030,     0.000,     0.000,     0.000,     0.000,   2
 10471,'HL',0,   3,   1,    11.990,     4.310,     0.000,     0.000,     0.000,     0.000,   3
 10475,'HL',0,   3,   1,     0.300,     0.100,     0.000,     0.000,     0.000,     0.000,   3
 10602,'LD',1,   9,   1,     1.400,     0.500,     0.000,     0.000,     0.000,     0.000,   2
 10801,'LD',1,   7,   1,     1.120,     0.120,     0.000,     0.000,     0.000,     0.000,   2
 10901,'LD',1,   1,   1,     2.660,     0.870,     0.000,     0.000,     0.000,     0.000,   2
 11201,'LD',1,   6,   1,     0.910,     0.250,     0.000,     0.000,     0.000,     0.000,   2
 11204,'LD',1,   6,   1,    19.480,    -0.320,     0.000,     0.000,     0.000,     0.000,   2
 11404,'LD',1,   9,   1,    24.970,     8.110,     0.000,     0.000,     0.000,     0.000,   2
 12001,'LD',1,   1,   1,     5.730,     1.500,     0.000,     0.000,     0.000,     0.000,   2
 12202,'LD',1,   8,   1,     7.700,     2.530,     0.000,     0.000,     0.000,     0.000,   2
 12402,'LD',1,   7,   1,     4.120,     1.240,     0.000,     0.000,     0.000,     0.000,   2
 12702,'DM',1,  10,   2,     2.000,     0.700,     0.000,     0.000,     0.000,     0.000,   5
 12702,'LD',1,  10,   1,     6.180,     1.650,     0.000,     0.000,     0.000,     0.000,   2
 12804,'LD',1,   3,   1,     4.870,     2.120,     0.000,     0.000,     0.000,     0.000,   2
 13001,'LD',1,   6,   1,     1.120,     0.510,     0.000,     0.000,     0.000,     0.000,   2
 13204,'LD',1,   8,   1,    10.020,    10.860,     0.000,     0.000,     0.000,     0.000,   2
 13302,'LD',1,   6,   1,     2.470,     0.740,     0.000,     0.000,     0.000,     0.000,   2
 13404,'LD',1,   9,   1,     5.130,     1.160,     0.000,     0.000,     0.000,     0.000,   2
 13501,'DM',1,   8,   2,     2.000,     0.600,     0.000,     0.000,     0.000,     0.000,   5
 13601,'DM',1,   5,   2,     2.500,     0.800,     0.000,     0.000,     0.000,     0.000,   5
 13601,'MI',0,   5,   2,     1.220,     0.360,     0.000,     0.000,     0.000,     0.000,   5
 13604,'LD',1,   5,   1,     3.620,     1.620,     0.000,     0.000,     0.000,     0.000,   2
 13701,'DM',1,   4,   2,    12.200,     4.000,     0.000,     0.000,     0.000,     0.000,   5
 13701,'LD',1,   4,   1,     4.700,     1.440,     0.000,     0.000,     0.000,     0.000,   2
 13802,'LD',1,   3,   1,    23.060,     7.580,     0.000,     0.000,     0.000,     0.000,   2
 13804,'LD',1,   3,   1,    11.960,     3.930,     0.000,     0.000,     0.000,     0.000,   2
 14002,'LD',1,   9,   1,     1.370,     0.620,     0.000,     0.000,     0.000,     0.000,   2
 14204,'LD',1,   1,   1,    20.000,     0.720,     0.000,     0.000,     0.000,     0.000,   2
 14401,'LD',1,   3,   1,     1.750,     0.570,     0.000,     0.000,     0.000,     0.000,   2
 14404,'LD',1,   3,   1,    15.730,     2.160,     0.000,     0.000,     0.000,     0.000,   2
 14604,'LD',1,   5,   1,    11.000,     3.610,     0.000,     0.000,     0.000,     0.000,   2
 14804,'LD',1,   5,   1,    23.720,     4.740,     0.000,     0.000,     0.000,     0.000,   2
 15001,'DM',1,   3,   2,     4.200,     1.400,     0.000,     0.000,     0.000,     0.000,   5
 15001,'MI',0,   3,   2,     1.970,     0.590,     0.000,     0.000,     0.000,     0.000,   5
 15402,'LD',1,   6,   1,     6.470,     2.130,     0.000,     0.000,     0.000,     0.000,   2
 15704,'LD',1,   9,   1,     6.120,     2.030,     0.000,     0.000,     0.000,     0.000,   2
 15801,'LD',1,   1,   1,     5.460,     1.790,     0.000,     0.000,     0.000,     0.000,   2
 16202,'LD',1,   3,   1,     9.490,     2.300,     0.000,     0.000,     0.000,     0.000,   2
 16604,'LD',1,   9,   1,    17.350,     3.570,     0.000,     0.000,     0.000,     0.000,   2
 16901,'LD',1,   1,   1,     2.350,     0.820,     0.000,     0.000,     0.000,     0.000,   2
 17004,'LD',1,   9,   1,     7.150,     1.300,     0.000,     0.000,     0.000,     0.000,   2
 17204,'DM',1,   5,   2,     1.000,     0.300,     0.000,     0.000,     0.000,     0.000,   5
 17204,'LD',1,   5,   1,    10.490,     3.120,     0.000,     0.000,     0.000,     0.000,   2
 17404,'LD',1,   2,   1,    28.360,     8.500,     0.000,     0.000,     0.000,     0.000,   2
 17802,'DM',1,   7,   2,    44.000,    14.500,     0.000,     0.000,     0.000,     0.000,   5
 17802,'MI',0,   7,   2,     5.000,     1.500,     0.000,     0.000,     0.000,     0.000,   5
 18004,'LD',1,   1,   1,    31.080,     4.480,     0.000,     0.000,     0.000,     0.000,   2
 18204,'LD',1,   9,   1,    12.870,     4.130,     0.000,     0.000,     0.000,     0.000,   2
 18304,'LD',1,   9,   1,     2.060,     0.410,     0.000,     0.000,     0.000,     0.000,   2
 18402,'LD',1,   6,   1,     0.610,     0.240,     0.000,     0.000,     0.000,     0.000,   2
 18404,'LD',1,   6,   1,     8.010,     2.810,     0.000,     0.000,     0.000,     0.000,   2
 18501,'LD',1,   2,   1,    10.960,     3.600,     0.000,     0.000,     0.000,     0.000,   2
 18604,'LD',1,   9,   1,    17.600,     4.620,     0.000,     0.000,     0.000,     0.000,   2
 18701,'DM',1,   2,   2,    22.800,     7.500,     0.000,     0.000,     0.000,     0.000,   5
 18701,'LD',1,   2,   1,     3.740,     1.500,     0.000,     0.000,     0.000,     0.000,   2
 18804,'LD',1,   3,   1,     4.240,     3.990,     0.000,     0.000,     0.000,     0.000,   2
 19004,'LD',1,   6,   1,    15.290,     2.320,     0.000,     0.000,     0.000,     0.000,   2
 19204,'LD',1,   3,   1,     3.670,     1.200,     0.000,     0.000,     0.000,     0.000,   2
 19471,'HL',1,   8,   2,     5.400,     1.940,     0.000,     0.000,     0.000,     0.000,   4
 19504,'LD',1,   9,   1,     9.060,     2.470,     0.000,     0.000,     0.000,     0.000,   2
 19601,'LD',1,   3,   1,    11.160,     3.660,     0.000,     0.000,     0.000,     0.000,   2
 20201,'LD',1,   1,   1,    13.120,     4.310,     0.000,     0.000,     0.000,     0.000,   2
 20301,'DM',1,   6,   2,     7.920,     2.600,     0.000,     0.000,     0.000,     0.000,   5
 21004,'LD',1,  10,   1,    16.470,     4.150,     0.000,     0.000,     0.000,     0.000,   2
 21204,'LD',1,   4,   1,     7.820,     1.050,     0.000,     0.000,     0.000,     0.000,   2
 21404,'LD',1,   5,   1,    12.720,     2.500,     0.000,     0.000,     0.000,     0.000,   2
 21604,'LD',1,   5,   1,    13.360,     1.370,     0.000,     0.000,     0.000,     0.000,   2
 21804,'LD',1,  10,   1,    29.710,     4.620,     0.000,     0.000,     0.000,     0.000,   2
 22204,'LD',1,   3,   1,    14.630,     2.320,     0.000,     0.000,     0.000,     0.000,   2
 22404,'LD',1,   5,   1,     3.550,     1.800,     0.000,     0.000,     0.000,     0.000,   2
 22501,'LD',1,   1,   1,     2.790,     0.890,     0.000,     0.000,     0.000,     0.000,   2
 22671,'HL',0,   8,   1,     0.300,     0.100,     0.000,     0.000,     0.000,     0.000,   1
 22672,'HL',0,   8,   1,     0.300,     0.100,     0.000,     0.000,     0.000,     0.000,   1
 22804,'LD',1,   9,   1,     9.110,     4.240,     0.000,     0.000,     0.000,     0.000,   2
 23001,'LD',1,   8,   1,     2.330,     0.760,     0.000,     0.000,     0.000,     0.000,   2
 23601,'LD',1,   4,   1,     5.070,     1.690,     0.000,     0.000,     0.000,     0.000,   2
 23604,'LD',1,   4,   1,    15.780,     2.560,     0.000,     0.000,     0.000,     0.000,   2
 24804,'LD',1,   2,   1,    19.210,     7.490,     0.000,     0.000,     0.000,     0.000,   2
 25604,'LD',1,   2,   1,    36.490,     6.450,     0.000,     0.000,     0.000,     0.000,   2
 26802,'DM',1,   9,   2,    11.870,     3.900,     0.000,     0.000,     0.000,     0.000,   5
 27004,'LD',1,   1,   1,    13.820,     3.660,     0.000,     0.000,     0.000,     0.000,   2
 27204,'LD',1,   2,   1,    29.180,    11.580,     0.000,     0.000,     0.000,     0.000,   2
 27404,'LD',1,   6,   1,     6.240,     2.500,     0.000,     0.000,     0.000,     0.000,   2
 27471,'HL',0,   6,   1,     3.000,     1.080,     0.000,     0.000,     0.000,     0.000,   3
 27472,'HL',0,   6,   1,     3.000,     1.080,     0.000,     0.000,     0.000,     0.000,   3
 27473,'HL',0,   6,   1,     7.990,     2.870,     0.000,     0.000,     0.000,     0.000,   3
 27604,'LD',1,   1,   1,    29.070,     9.060,     0.000,     0.000,     0.000,     0.000,   2
 27801,'LD',1,   9,   1,    20.670,     9.500,     0.000,     0.000,     0.000,     0.000,   2
 27804,'LD',1,   9,   1,    36.330,     2.700,     0.000,     0.000,     0.000,     0.000,   2
 28201,'DM',1,   9,   2,    17.000,     5.600,     0.000,     0.000,     0.000,     0.000,   5
 28201,'MI',0,   9,   2,     3.890,     1.160,     0.000,     0.000,     0.000,     0.000,   5
 28204,'LD',1,   9,   1,     4.120,     1.240,     0.000,     0.000,     0.000,     0.000,   2
 28571,'HL',0,   3,   1,     9.810,     3.530,     0.000,     0.000,     0.000,     0.000,   1
 28601,'LD',1,   1,   1,    -2.030,    -0.660,     0.000,     0.000,     0.000,     0.000,   2
 28604,'LD',1,   1,   1,    20.850,     1.120,     0.000,     0.000,     0.000,     0.000,   2
 28804,'LD',1,   3,   1,     5.460,     1.750,     0.000,     0.000,     0.000,     0.000,   2
 29401,'LD',1,   1,   1,    11.230,     3.680,     0.000,     0.000,     0.000,     0.000,   2
 29501,'LD',1,   1,   1,     2.350,     0.740,     0.000,     0.000,     0.000,     0.000,   2
 29672,'HL',0,   2,   2,     7.000,     2.520,     0.000,     0.000,     0.000,     0.000,   4
 29801,'LD',1,   3,   1,     3.670,     0.410,     0.000,     0.000,     0.000,     0.000,   2
 30804,'LD',1,   1,   1,    21.760,     5.590,     0.000,     0.000,     0.000,     0.000,   2
 31004,'LD',1,   5,   1,     8.350,     4.120,     0.000,     0.000,     0.000,     0.000,   2
 31271,'HL',0,   2,   2,     6.900,     2.480,     0.000,     0.000,     0.000,     0.000,   4
 32201,'LD',1,   3,   1,     3.460,     1.140,     0.000,     0.000,     0.000,     0.000,   2
 32204,'LD',1,   3,   1,    28.460,     1.980,     0.000,     0.000,     0.000,     0.000,   2
 32404,'LD',1,   8,   1,    18.100,     7.560,     0.000,     0.000,     0.000,     0.000,   2
 32604,'LD',1,   6,   1,    26.800,     6.680,     0.000,     0.000,     0.000,     0.000,   2
 33004,'LD',1,   7,   1,    17.850,     4.240,     0.000,     0.000,     0.000,     0.000,   2
 33201,'DM',1,  10,   2,    24.220,     8.000,     0.000,     0.000,     0.000,     0.000,   5
 33801,'DM',1,   8,   2,     4.000,     1.300,     0.000,     0.000,     0.000,     0.000,   5
 34001,'LD',1,   5,   1,     2.000,     0.570,     0.000,     0.000,     0.000,     0.000,   2
 34201,'DM',1,   1,   2,     6.720,     2.200,     0.000,     0.000,     0.000,     0.000,   5
 34201,'LD',1,   1,   1,     3.550,     1.300,     0.000,     0.000,     0.000,     0.000,   2
 34301,'DM',1,   1,   2,    23.750,     7.800,     0.000,     0.000,     0.000,     0.000,   5
 34404,'LD',1,   6,   1,     7.830,     2.550,     0.000,     0.000,     0.000,     0.000,   2
 34501,'DM',1,  10,   2,     8.800,     2.900,     0.000,     0.000,     0.000,     0.000,   5
 34501,'LD',1,  10,   1,     4.570,     1.240,     0.000,     0.000,     0.000,     0.000,   2
 35004,'LD',1,   9,   1,     6.240,     2.280,     0.000,     0.000,     0.000,     0.000,   2
 35074,'HL',1,   9,   1,     2.250,     0.810,     0.000,     0.000,     0.000,     0.000,   3
 35404,'LD',1,   7,   1,    33.190,     8.400,     0.000,     0.000,     0.000,     0.000,   2
 35604,'LD',1,  10,   1,    11.360,     2.000,     0.000,     0.000,     0.000,     0.000,   2
 35771,'HL',1,   3,   1,     5.940,     2.130,     0.000,     0.000,     0.000,     0.000,   1
 35804,'LD',1,   9,   1,    17.640,     4.830,     0.000,     0.000,     0.000,     0.000,   2
 36001,'LD',1,   3,   1,     7.140,     2.350,     0.000,     0.000,     0.000,     0.000,   2
 37501,'DM',1,   1,   2,     2.000,     0.700,     0.000,     0.000,     0.000,     0.000,   5
 37501,'LD',1,   1,   1,     2.660,     0.870,     0.000,     0.000,     0.000,     0.000,   2
 37601,'LD',1,   2,   1,    20.680,     5.990,     0.000,     0.000,     0.000,     0.000,   2
 37602,'DM',1,   2,   2,     5.000,     1.600,     0.000,     0.000,     0.000,     0.000,   5
 37602,'MI',0,   2,   2,     5.440,     1.630,     0.000,     0.000,     0.000,     0.000,   5
 38001,'LD',1,   3,   1,     3.890,     1.270,     0.000,     0.000,     0.000,     0.000,   2
 38004,'LD',1,   3,   1,    12.480,     3.500,     0.000,     0.000,     0.000,     0.000,   2
 38204,'LD',1,  10,   1,    17.430,     8.980,     0.000,     0.000,     0.000,     0.000,   2
 38601,'LD',1,   1,   1,     4.990,     2.500,     0.000,     0.000,     0.000,     0.000,   2
 38701,'LD',1,   1,   1,     4.990,     2.500,     0.000,     0.000,     0.000,     0.000,   2
 38804,'LD',1,   3,   1,     0.650,     1.490,     0.000,     0.000,     0.000,     0.000,   2
 39471,'HL',1,   4,   1,    10.610,     3.820,     0.000,     0.000,     0.000,     0.000,   3
 39472,'HL',1,   7,   1,    10.610,     3.820,     0.000,     0.000,     0.000,     0.000,   3
 39473,'HL',1,   4,   1,    10.610,     3.820,     0.000,     0.000,     0.000,     0.000,   3
 39601,'LD',1,   3,   1,     8.600,     2.820,     0.000,     0.000,     0.000,     0.000,   2
 39672,'HL',0,   3,   1,     3.000,     1.080,     0.000,     0.000,     0.000,     0.000,   3
 39675,'HL',0,   3,   1,     5.000,     1.800,     0.000,     0.000,     0.000,     0.000,   3
 39801,'DM',1,   7,   2,    15.000,     4.900,     0.000,     0.000,     0.000,     0.000,   5
 40001,'LD',1,   9,   1,     5.970,     1.650,     0.000,     0.000,     0.000,     0.000,   2
 40004,'LD',1,   9,   1,     8.380,     1.600,     0.000,     0.000,     0.000,     0.000,   2
 40204,'LD',1,   3,   1,     7.750,     1.920,     0.000,     0.000,     0.000,     0.000,   2
 40404,'LD',1,   9,   1,    12.100,     2.230,     0.000,     0.000,     0.000,     0.000,   2
 40601,'LD',1,  10,   1,     1.150,     0.370,     0.000,     0.000,     0.000,     0.000,   2
 40602,'DM',1,  10,   2,     2.000,     0.700,     0.000,     0.000,     0.000,     0.000,   5
 40604,'LD',1,  10,   1,     8.220,     2.470,     0.000,     0.000,     0.000,     0.000,   2
 40801,'LD',1,   8,   1,     0.950,     0.310,     0.000,     0.000,     0.000,     0.000,   2
 42004,'LD',1,   8,   1,    10.260,     5.470,     0.000,     0.000,     0.000,     0.000,   2
 42102,'DM',1,   1,   2,     7.220,     2.400,     0.000,     0.000,     0.000,     0.000,   5
 42102,'LD',1,   1,   1,     6.470,     2.130,     0.000,     0.000,     0.000,     0.000,   2
 42204,'LD',1,  10,   1,    17.270,    12.870,     0.000,     0.000,     0.000,     0.000,   2
 42604,'LD',1,   7,   1,    11.740,     3.860,     0.000,     0.000,     0.000,     0.000,   2
 42802,'DM',1,   1,   2,    11.000,     3.600,     0.000,     0.000,     0.000,     0.000,   5
 43604,'LD',1,   7,   1,    19.350,     3.840,     0.000,     0.000,     0.000,     0.000,   2
 44001,'LD',1,   1,   1,     5.710,     1.920,     0.000,     0.000,     0.000,     0.000,   2
 44671,'HL',0,   2,   1,     5.500,     1.980,     0.000,     0.000,     0.000,     0.000,   3
 44672,'HL',0,   2,   1,     5.500,     1.980,     0.000,     0.000,     0.000,     0.000,   3
 44673,'HL',0,   2,   1,    12.990,     4.670,     0.000,     0.000,     0.000,     0.000,   3
 44804,'LD',1,   8,   1,     9.530,    -0.130,     0.000,     0.000,     0.000,     0.000,   2
 44901,'DM',1,   1,   2,     6.960,     2.290,     0.000,     0.000,     0.000,     0.000,   5
 44901,'LD',1,   1,   1,     3.400,     0.980,     0.000,     0.000,     0.000,     0.000,   2
 45001,'DM',1,  10,   2,    21.000,     6.600,     0.000,     0.000,     0.000,     0.000,   5
 45101,'LD',1,   1,   1,     6.180,     1.240,     0.000,     0.000,     0.000,     0.000,   2
 46210,'DM',1,   2,   2,    16.000,     5.300,     0.000,     0.000,     0.000,     0.000,   5
 46214,'DM',1,   2,   2,    26.000,     8.500,     0.000,     0.000,     0.000,     0.000,   5
 46224,'DM',1,   2,   2,    23.000,     7.600,     0.000,     0.000,     0.000,     0.000,   5
 46501,'LD',1,   1,   1,    12.860,     5.620,     0.000,     0.000,     0.000,     0.000,   2
 46804,'LD',1,   7,   1,    11.110,     2.120,     0.000,     0.000,     0.000,     0.000,   2
 47004,'LD',1,   9,   1,     9.520,     1.750,     0.000,     0.000,     0.000,     0.000,   2
 47402,'DM',1,   2,   2,     7.600,     2.500,     0.000,     0.000,     0.000,     0.000,   5
 47601,'LD',1,   3,   1,     0.870,     0.290,     0.000,     0.000,     0.000,     0.000,   2
 49474,'HL',1,   5,   1,     4.760,     1.710,     0.000,     0.000,     0.000,     0.000,   3
 49501,'LD',1,   9,   1,     4.120,     1.240,     0.000,     0.000,     0.000,     0.000,   2
 49504,'LD',1,   9,   1,    18.870,     4.530,     0.000,     0.000,     0.000,     0.000,   2
 49604,'LD',1,  10,   1,    19.960,     7.270,     0.000,     0.000,     0.000,     0.000,   2
 49701,'LD',1,   6,   1,     5.360,     1.480,     0.000,     0.000,     0.000,     0.000,   2
 49804,'LD',1,   9,   1,    22.210,     4.620,     0.000,     0.000,     0.000,     0.000,   2
 50004,'LD',1,   9,   1,    11.870,     3.580,     0.000,     0.000,     0.000,     0.000,   2
 50276,'HL',0,   2,   1,     9.990,     3.590,     0.000,     0.000,     0.000,     0.000,   3
 50301,'LD',1,   1,   1,     5.360,     1.760,     0.000,     0.000,     0.000,     0.000,   2
 50573,'HL',1,   7,   2,     0.360,     0.130,     0.000,     0.000,     0.000,     0.000,   4
 50574,'HL',1,   7,   2,     0.360,     0.130,     0.000,     0.000,     0.000,     0.000,   4
 50604,'LD',1,   6,   1,     6.870,     0.620,     0.000,     0.000,     0.000,     0.000,   2
 50901,'LD',1,   7,   1,     4.940,     1.360,     0.000,     0.000,     0.000,     0.000,   2
...
0 / END OF LOAD DATA, BEGIN GENERATOR DATA
 10204,'2 ',     0.231,    -0.070,    -0.070,    -0.070,1.04000,     0,     0.895,   0.00000,   0.25400,   0.00000,   0.20000,1.00000,1,  100.0,     0.660,     0.000,   4,1.0000
 10204,'3 ',     2.625,    -0.820,    -0.820,    -0.820,1.04000,     0,     8.625,   0.00000, 999.00000,   0.00000,   0.20000,1.00000,1,  100.0,     7.500,     0.000,   2,1.0000
 10271,'1 ',    22.000,    -7.000,    15.000,    -7.000,1.00000,  1021,    34.000,   0.00000,   0.26000,   0.00000,   0.00000,1.00000,1,   15.0,    21.000,     5.000,   3,1.0000
 10272,'2 ',    22.000,    -7.000,    15.000,    -7.000,1.00000,  1021,    34.000,   0.00000,   0.26000,   0.00000,   0.00000,1.00000,1,   15.0,    22.000,     5.000,   3,1.0000
 10273,'3 ',    22.000,    -7.000,    15.000,    -7.000,1.00000,  1021,    34.000,   0.00000,   0.26000,   0.00000,   0.00000,1.00000,0,   15.0,    19.000,     5.000,   3,1.0000
 10274,'4 ',    23.000,    -7.000,    15.000,    -7.000,1.00000,  1021,    34.000,   0.00000,   0.25000,   0.00000,   0.00000,1.00000,0,   15.0,    24.000,     5.000,   3,1.0000
 10471,'1 ',   270.000,     0.000,   153.000,   -53.000,1.02000,  1042,   318.800,   0.00000,   0.26400,   0.00000,   0.00000,1.00000,0,  153.0,   270.000,    40.000,   3,1.0000
 10472,'11',    90.000,     0.000,    60.000,   -30.000,1.02000,  1072,   100.900,   0.00000,   0.14700,   0.00000,   0.00000,1.00000,0,   60.0,    90.000,    20.000,   3,1.0000
 10473,'12',    90.000,     0.000,    60.000,   -30.000,1.02000,  1052,   100.900,   0.00000,   0.14700,   0.00000,   0.00000,1.00000,0,   60.0,    90.000,    20.000,   3,1.0000
 10474,'14',    90.000,     0.000,    60.000,   -30.000,1.02000,  1072,   100.900,   0.00000,   0.14700,   0.00000,   0.00000,1.00000,0,   60.0,    90.000,    20.000,   3,1.0000
 10475,'5 ',    52.300,     0.000,    32.600,   -22.700,1.02000,  1041,    62.000,   0.00000,   0.25400,   0.00000,   0.00000,1.00000,0,   32.6,    52.300,     1.200,   3,1.0000
 10602,'1 ',     0.420,    -0.130,    -0.130,    -0.130,1.04000,     0,     1.380,   0.00000,   0.25400,   0.00000,   0.20000,1.00000,1,  100.0,     1.200,     0.000,   4,1.0000
 10602,'2 ',     1.680,    -0.520,    -0.520,    -0.520,1.04000,     0,     5.520,   0.00000,   0.25400,   0.00000,   0.20000,1.00000,1,  100.0,     4.800,     0.000,   4,1.0000
 10602,'3 ',     1.750,    -0.550,    -0.550,    -0.550,1.04000,     0,     5.750,   0.00000,   0.25400,   0.00000,   0.20000,1.00000,1,  100.0,     5.000,     0.000,   4,1.0000
 10602,'5 ',     1.890,    -1.770,    -1.770,    -2.300,1.04000,     0,     7.050,   0.00000,   0.25400,   0.00000,   0.05640,1.00000,1,  100.0,     5.400,     0.000,   2,1.0000
 11204,'1 ',     8.820,    -2.750,    -2.750,    -2.750,1.04000,     0,    29.000,   0.00000,   0.25400,   0.00000,   0.20000,1.00000,1,  100.0,    25.200,     0.000,   2,1.0000
 11371,'1 ',    23.800,   -15.890,    15.890,   -15.890,1.00000,  1131,    71.875,   0.00000,   0.25400,   0.00000,   0.00000,1.00000,1,  100.0,    68.000,     0.000,   4,1.0000
 11402,'1 ',     1.487,    -1.400,    -1.400,    -1.810,1.04000,     0,     4.475,   0.00000,   0.25400,   0.00000,   0.06000,1.00000,1,  100.0,     4.250,     0.000,   1,1.0000
 12371,'1 ',    14.700,    -9.700,     9.700,    -9.700,1.00000,  1231,    42.000,   0.00000,   0.25400,   0.00000,   0.00000,1.00000,1,  100.0,    42.000,     0.000,   4,1.0000
 12571,'1 ',     6.807,     0.044,     4.490,    -4.490,1.00000,  1251,    23.925,   0.00000,   0.25400,   0.00000,   0.00000,1.00000,1,  100.0,    19.450,     0.000,   4,1.0000
 12804,'1 ',     2.975,    -0.930,    -0.930,    -0.930,1.04000,     0,     8.950,   0.00000,   0.25400,   0.00000,   0.20000,1.00000,1,  100.0,     8.500,     0.000,   2,1.0000
 12804,'2 ',     6.842,    -2.140,    -2.140,    -2.140,1.04000,     0,    20.585,   0.00000,   0.25400,   0.00000,   0.20000,1.00000,1,  100.0,    19.550,     0.000,   2,1.0000
 13302,'1 ',     5.057,    -2.385,     2.030,    -3.360,1.00000,     0,    15.215,   0.00000,   0.25400,   0.00000,   0.06000,1.00000,1,  100.0,    14.450,     0.000,   2,1.0000
 13302,'2 ',     1.750,    -0.825,     0.700,    -1.190,1.00000,     0,     5.520,   0.00000,   0.25400,   0.00000,   0.00000,1.00000,1,  100.0,     5.000,     0.000,   2,1.0000
 13312,'1 ',     1.400,    -1.700,    -1.310,    -1.700,1.00000,  1331,     4.700,   0.00000,   0.25400,   0.00000,   0.56400,1.00000,1,  100.0,     4.000,     0.000,   1,1.0000
 13312,'2 ',     1.400,    -1.700,    -1.310,    -1.700,1.00000,  1331,     4.030,   0.00000,   0.25400,   0.00000,   0.06717,1.00000,1,  100.0,     4.000,     0.000,   1,1.0000
 13312,'3 ',     1.260,    -1.530,    -1.180,    -1.530,1.00000,  1331,     3.600,   0.00000,   0.25400,   0.00000,   0.05400,1.00000,1,  100.0,     3.600,     0.000,   1,1.0000
 13312,'4 ',     5.180,    -3.430,     3.430,    -3.430,1.00000,  1331,    17.350,   0.00000,   0.25400,   0.00000,   0.05627,1.00000,1,  100.0,    14.800,     0.000,   1,1.0000
 13404,'1 ',     0.231,    -0.070,    -0.070,    -0.070,1.04000,     0,     0.759,   0.00000,   0.25400,   0.00000,   0.20000,1.00000,1,  100.0,     0.660,     0.000,   4,1.0000
 13404,'2 ',     0.893,    -0.280,    -0.280,    -0.280,1.04000,     0,     2.685,   0.00000,   0.25400,   0.00000,   0.20000,1.00000,1,  100.0,     2.550,     0.000,   2,1.0000
 13404,'3 ',     4.165,    -1.300,    -1.300,    -1.300,1.04000,     0,    13.685,   0.00000,   0.25400,   0.00000,   0.20000,1.00000,1,  100.0,    11.900,     0.000,   2,1.0000
 13404,'4 ',     5.250,    -1.640,    -1.640,    -1.640,1.04000,     0,    17.170,   0.00000,   0.25400,   0.00000,   0.20000,1.00000,1,  100.0,    15.000,     0.000,   2,1.0000
 13404,'5 ',     2.100,    -0.660,    -0.660,    -0.660,1.04000,     0,     6.900,   0.00000,   0.25400,   0.00000,   0.20000,1.00000,1,  100.0,     6.000,     0.000,   2,1.0000
 13404,'6 ',     2.678,    -0.840,    -0.840,    -0.840,1.04000,     0,     8.055,   0.00000,   0.25400,   0.00000,   0.20000,1.00000,1,  100.0,     7.650,     0.000,   2,1.0000
 14002,'3 ',     2.257,    -0.700,    -0.700,    -0.700,1.04000,     0,     7.418,   0.00000,   0.25400,   0.00000,   0.10000,1.00000,1,  100.0,     6.450,     0.000,   3,1.0000
 14404,'1 ',     1.575,    -0.490,    -0.490,    -0.490,1.04000,     0,     5.151,   0.00000,   0.25400,   0.00000,   0.20000,1.00000,1,  100.0,     4.500,     0.000,   2,1.0000
 14604,'1 ',     4.800,     0.000,     1.000,    -1.000,1.05000,     0,     7.000,   0.00000,   0.14800,   0.00000,   0.10000,1.00000,0,    1.0,     4.800,     0.000,   5,1.0000
 14804,'1 ',     0.595,    -0.190,    -0.190,    -0.190,1.04000,     0,     1.790,   0.00000,   0.25400,   0.00000,   0.20000,1.00000,1,  100.0,     1.700,     0.000,   4,1.0000
 16371,'1 ',     1.190,     0.490,     0.490,    -0.770,1.01500, 16302,     3.580,   0.00000,   0.25400,   0.00000,   0.10000,1.00000,1,  100.0,     3.400,     0.000,   1,1.0000
 16372,'2 ',     1.190,    -0.770,     0.490,    -0.770,1.00000,     0,     3.580,   0.00000,   0.25400,   0.00000,   0.10000,1.00000,1,  100.0,     3.400,     0.000,   1,1.0000
 16373,'3 ',     2.380,     0.980,     0.980,    -1.610,1.01500, 16302,     7.160,   0.00000,   0.25400,   0.00000,   0.10000,1.00000,1,  100.0,     6.800,     0.000,   1,1.0000
 16374,'4 ',     2.660,     1.760,     1.760,    -1.760,1.01500, 16302,     8.055,   0.00000,   0.25400,   0.00000,   0.10000,1.00000,1,  100.0,     7.600,     0.000,   1,1.0000
 16375,'5 ',     1.487,     0.980,     0.980,    -0.980,1.01500, 16302,     4.475,   0.00000,   0.25400,   0.00000,   0.10000,1.00000,1,  100.0,     4.250,     0.000,   1,1.0000
 16376,'6 ',     1.732,    -0.540,    -0.540,    -0.540,1.00000,     0,     5.370,   0.00000,   0.25400,   0.00000,   0.10000,1.00000,1,  100.0,     4.950,     0.000,   4,1.0000
 16377,'1 ',     3.150,    -2.100,     2.100,    -2.100,1.00000,  1631,     9.570,   0.00000,   0.25400,   0.00000,   0.00000,1.00000,1,  100.0,     9.000,     0.000,   1,1.0000
 16378,'1 ',     0.559,    -0.530,    -0.530,    -0.680,1.04000,     0,     1.790,   0.00000,   0.25400,   0.00000,   0.00000,1.00000,1,  100.0,     1.598,     0.000,   1,1.0000
 16571,'1 ',    13.230,    -8.770,     8.770,    -8.770,1.00000,  1651,    39.000,   0.00000,   0.25400,   0.00000,   0.00000,1.00000,1,  100.0,    37.800,     0.000,   4,1.0000
 16602,'1 ',     1.190,    -0.370,    -0.370,    -0.370,1.04000,     0,     3.580,   0.00000,   0.25400,   0.00000,   0.06000,1.00000,1,  100.0,     3.400,     0.000,   4,1.0000
 16602,'2 ',     0.595,    -0.560,    -0.560,    -0.730,1.04000,     0,     1.790,   0.00000,   0.25400,   0.00000,   0.06000,1.00000,1,  100.0,     1.700,     0.000,   1,1.0000
 16604,'2 ',     6.545,    -2.040,    -2.040,    -2.040,1.00000,     0,    19.690,   0.00000,   0.25400,   0.00000,   0.20000,1.00000,1,  100.0,    18.700,     0.000,   4,1.0000
 16604,'3 ',     0.735,    -0.230,    -0.230,    -0.230,1.00000,     0,     2.300,   0.00000,   0.25400,   0.00000,   0.00000,1.00000,1,  100.0,     2.100,     0.000,   2,1.0000
 16612,'1 ',     2.975,    -2.790,    -2.790,    -3.620,1.04000,     0,     8.950,   0.00000,   0.25400,   0.00000,   0.06000,1.00000,1,  100.0,     8.500,     0.000,   1,1.0000
 16873,'3 ',     8.000,    -1.000,     7.000,    -1.000,1.00000,  1681,    11.500,   0.00000,   0.31700,   0.00000,   0.00000,1.00000,1,    7.0,     8.000,     2.000,   3,1.0000
 17004,'5 ',     0.693,    -0.220,    -0.220,    -0.220,1.04000,     0,     3.100,   0.00000,   0.25400,   0.00000,   0.20000,1.00000,1,  100.0,     1.980,     0.000,   4,1.0000
 17004,'6 ',     0.385,    -0.120,    -0.120,    -0.120,1.04000,     0,     1.500,   0.00000,   0.25400,   0.00000,   0.20000,1.00000,1,  100.0,     1.100,     0.000,   4,1.0000
 17004,'7 ',     1.190,    -0.370,    -0.370,    -0.370,1.04000,     0,     3.580,   0.00000,   0.25400,   0.00000,   0.20000,1.00000,1,  100.0,     3.400,     0.000,   2,1.0000
 17073,'3 ',    22.500,   -10.000,     7.000,   -10.000,1.00000,  1701,    30.000,   0.00000,   0.25400,   0.00000,   0.00000,1.00000,1,    7.0,    22.500,     5.000,   3,1.0000
 17074,'4 ',    22.500,    -8.796,     7.000,   -10.000,1.00000,  1701,    30.000,   0.00000,   0.25400,   0.00000,   0.00000,1.00000,0,    7.0,    22.500,     5.000,   3,1.0000
 17671,'1 ',    10.000,    -3.000,     7.000,    -3.000,1.00000,  1701,    12.500,   0.00000,   0.19000,   0.00000,   0.00000,1.00000,1,    7.0,    10.000,     3.000,   3,1.0000
 17672,'2 ',    10.000,    -3.000,     7.000,    -3.000,1.00000,  1701,    12.500,   0.00000,   0.19000,   0.00000,   0.00000,1.00000,0,    7.0,    10.000,     3.000,   3,1.0000
 17771,'1 ',    14.429,    -9.590,     9.590,    -9.590,1.00000,  2771,    42.925,   0.00000,   0.25400,   0.00000,   0.00000,1.00000,1,  100.0,    41.225,     0.000,   4,1.0000
 18404,'1 ',     1.747,    -0.550,    -0.550,    -0.550,1.04000,     0,     5.739,   0.00000,   0.25400,   0.00000,   0.20000,1.00000,1,  100.0,     4.990,     0.000,   2,1.0000
 18802,'1 ',     1.050,    -0.330,    -0.330,    -0.330,1.04000,     0,     3.125,   0.00000,   0.25400,   0.00000,   0.07962,1.00000,1,  100.0,     3.000,     0.000,   1,1.0000
 19071,'1 ',     0.893,    -0.280,    -0.280,    -0.280,1.04000,     0,     2.685,   0.00000,   0.25400,   0.00000,   0.06000,1.00000,1,  100.0,     2.550,     0.000,   4,1.0000
 19071,'2 ',     0.595,    -0.560,    -0.560,    -0.730,1.04000,     0,     1.790,   0.00000,   0.25400,   0.00000,   0.06000,1.00000,1,  100.0,     1.700,     0.000,   4,1.0000
 19072,'1 ',     1.750,    -0.550,    -0.550,    -0.550,1.04000,     0,     7.050,   0.00000,   0.25400,   0.00000,   0.05640,1.00000,1,  100.0,     4.999,     0.000,   4,1.0000
 19072,'2 ',     1.575,    -0.490,    -0.490,    -0.490,1.04000,     0,     4.700,   0.00000,   0.25400,   0.00000,   0.05647,1.00000,1,  100.0,     4.500,     0.000,   4,1.0000
 19073,'1 ',     7.350,    -6.900,    -6.900,    -8.950,1.04000,     0,    21.875,   0.00000,   0.25400,   0.00000,   0.07962,1.00000,1,  100.0,    21.000,     0.000,   4,1.0000
 19371,'1 ',    12.180,    -5.360,    -5.360,    -5.360,1.00000,  1931,    36.500,   0.00000,   0.25400,   0.00000,   0.00000,1.00000,1,  100.0,    34.800,     0.000,   4,1.0000
 19471,'1 ',    60.000,   -34.503,    75.000,   -50.000,1.00000,  1941,   153.000,   0.00000,   0.18800,   0.00000,   0.00000,1.00000,1,   75.0,   130.000,    60.000,   4,1.0000
 19771,'1 ',    14.875,    -9.940,     5.950,    -9.940,1.00000,  1971,    45.000,   0.00000,   0.25400,   0.00000,   0.00000,1.00000,1,  100.0,    42.500,     0.000,   4,1.0000
 19902,'1 ',    14.490,    -9.660,     9.660,    -9.660,1.00000,  1991,    41.400,   0.00000,   0.25400,   0.00000,   0.00000,1.00000,1,  100.0,    41.400,     0.000,   1,1.0000
 21004,'1 ',     2.625,    -0.820,    -0.820,    -0.820,1.04000,     0,     8.625,   0.00000,   0.25400,   0.00000,   0.20000,1.00000,1,  100.0,     7.500,     0.000,   4,1.0000
 21004,'2 ',     0.175,    -0.050,    -0.050,    -0.050,1.04000,     0,     0.895,   0.00000,   0.25400,   0.00000,   0.20000,1.00000,1,  100.0,     0.500,     0.000,   2,1.0000
 21402,'1 ',     0.595,    -0.560,    -0.560,    -0.730,1.04000,     0,     1.790,   0.00000,   0.25400,   0.00000,   0.06000,1.00000,1,  100.0,     1.700,     0.000,   1,1.0000
 21802,'1 ',     0.595,    -0.190,    -0.190,    -0.190,1.04000,     0,     1.790,   0.00000,   0.25400,   0.00000,   0.06000,1.00000,1,  100.0,     1.700,     0.000,   4,1.0000
 21802,'2 ',     1.050,    -0.990,    -0.990,    -1.280,1.04000,     0,     3.125,   0.00000,   0.25400,   0.00000,   0.07962,1.00000,1,  100.0,     3.000,     0.000,   1,1.0000
 22204,'1 ',     1.617,    -0.500,    -0.500,    -0.500,1.04000,     0,     5.313,   0.00000,   0.25400,   0.00000,   0.20000,1.00000,1,  100.0,     4.620,     0.000,   3,1.0000
 22204,'2 ',     2.079,    -0.650,    -0.650,    -0.650,1.04000,     0,     6.831,   0.00000,   0.25400,   0.00000,   0.20000,1.00000,1,  100.0,     5.940,     0.000,   3,1.0000
 22204,'3 ',     2.082,    -0.650,    -0.650,    -0.650,1.04000,     0,     6.868,   0.00000,   0.25400,   0.00000,   0.20000,1.00000,1,  100.0,     5.950,     0.000,   4,1.0000
 22204,'4 ',     1.487,    -0.460,    -0.460,    -0.460,1.04000,     0,     5.000,   0.00000,   0.20000,   0.00000,   0.20000,1.00000,1,  100.0,     4.250,     0.000,   4,1.0000
 22371,'1 ',    20.825,   -13.880,     8.330,   -13.880,1.00000,  2231,    62.650,   0.00000,   0.25400,   0.00000,   0.00000,1.00000,1,  100.0,    59.500,     0.000,   4,1.0000
 22404,'1 ',     0.893,    -0.280,    -0.280,    -0.280,1.04000,     0,     2.685,   0.00000,   0.20000,   0.00000,   0.20000,1.00000,1,  100.0,     2.550,     0.000,   4,1.0000
 22404,'2 ',     1.487,    -0.460,    -0.460,    -0.460,1.04000,     0,     5.000,   0.00000,   0.20000,   0.00000,   0.20000,1.00000,1,  100.0,     4.250,     0.000,   4,1.0000
 22671,'1 ',    52.100,     0.000,    32.600,   -22.700,1.02000,  2261,    62.000,   0.00000,   0.25400,   0.00000,   0.00000,1.00000,0,   32.6,    52.100,     1.200,   3,1.0000
 22672,'2 ',    52.100,     0.000,    32.600,   -22.700,1.02000,  2261,    62.000,   0.00000,   0.25400,   0.00000,   0.00000,1.00000,0,   32.6,    52.100,     1.200,   3,1.0000
 22802,'1 ',     0.893,    -0.840,    -0.840,    -1.090,1.04000,     0,     2.685,   0.00000,   0.25400,   0.00000,   0.06000,1.00000,1,  100.0,     2.550,     0.000,   1,1.0000
 26702,'1 ',    11.034,    -7.350,     7.350,    -7.350,1.00000,  2671,    32.500,   0.00000,   0.25400,   0.00000,   0.00000,1.00000,1,  100.0,    31.525,     0.000,   4,1.0000
 26703,'1 ',     9.345,    -6.230,     6.230,    -6.230,1.00000,  2671,    26.700,   0.00000,   0.25400,   0.00000,   0.00000,1.00000,1,  100.0,    26.700,     0.000,   4,1.0000
 27204,'5 ',     4.000,     0.000,     1.000,    -1.000,1.04000,     0,     5.000,   0.00000,   0.30000,   0.00000,   0.10000,1.00000,0,    1.0,     4.000,     0.000,   3,1.0000
 27371,'1 ',     4.480,    -3.010,     1.820,    -3.010,1.00000,  2731,    15.215,   0.00000,   0.25400,   0.00000,   0.00000,1.00000,1,  100.0,    12.800,     0.000,   4,1.0000
 27372,'2 ',     5.950,    -3.990,     2.380,    -3.990,1.00000,  2731,    18.750,   0.00000,   0.25400,   0.00000,   0.00000,1.00000,1,  100.0,    17.000,     0.000,   4,1.0000
 27402,'1 ',     1.487,    -1.400,    -1.400,    -1.810,1.04000,     0,     4.475,   0.00000,   0.25400,   0.00000,   0.06000,1.00000,1,  100.0,     4.250,     0.000,   1,1.0000
 27471,'1 ',    57.000,     0.000,    42.000,    -3.000,1.00000,  2741,    75.000,   0.00000,   0.20300,   0.00000,   0.00000,1.00000,0,   42.0,    57.000,    25.000,   3,1.0000
 27472,'2 ',    57.000,     0.000,    40.000,    -3.000,1.00000,  2741,    75.000,   0.00000,   0.20300,   0.00000,   0.00000,1.00000,0,   40.0,    57.000,    25.000,   3,1.0000
 27473,'3 ',   116.000,     0.000,    82.000,   -48.000,1.04000,  2742,   150.000,   0.00000,   0.18500,   0.00000,   0.00000,1.00000,0,   82.0,   116.000,    30.000,   3,1.0000
 27804,'1 ',     1.155,    -0.360,    -0.360,    -0.360,1.04000,     0,     3.795,   0.00000,   0.25400,   0.00000,   0.20000,1.00000,1,  100.0,     3.300,     0.000,   4,1.0000
 27804,'2 ',     0.236,    -0.070,    -0.070,    -0.070,1.04000,     0,     0.776,   0.00000,   0.25400,   0.00000,   0.20000,1.00000,1,  100.0,     0.675,     0.000,   2,1.0000
 28002,'1 ',     5.250,    -2.170,    -2.170,    -2.170,1.00000,     0,    17.250,   0.00000,   0.25400,   0.00000,   0.10000,1.00000,1,  100.0,    15.000,     0.000,   4,1.0000
 28571,'1 ',   450.470,     0.000,   282.100,  -196.800,1.02000,  1062,   535.500,   0.00000,   0.24500,   0.00000,   0.00000,1.00000,0,  282.1,   450.470,   110.100,   4,1.0000
 28804,'2 ',     8.855,    -2.760,    -2.760,    -2.760,1.04000,     0,    28.578,   0.00000,   0.20000,   0.00000,   0.20000,1.00000,1,  100.0,    25.300,     0.000,   4,1.0000
 28814,'1 ',     3.675,    -1.150,    -1.150,    -1.150,1.04000,     0,    12.019,   0.00000,   0.25400,   0.00000,   0.20000,1.00000,1,  100.0,    10.500,     0.000,   2,1.0000
 29671,'ST',   120.000,     0.000,    90.000,   -47.000,1.04000,  2562,   150.000,   0.00000,   0.18800,   0.00000,   0.00000,1.00000,0,   90.0,   120.000,    40.000,   4,1.0000
 29672,'CT',   230.000,     0.000,   173.000,  -106.000,1.04000,  2562,   288.000,   0.00000,   0.17900,   0.00000,   0.00000,1.00000,0,  173.0,   230.000,   138.000,   4,1.0000
 29673,'2 ',   400.000,     0.000,   249.000,  -100.000,1.04000,  2562,   473.000,   0.00500,   0.25600,   0.00000,   0.00000,1.00000,0,  249.0,   400.000,   257.000,   4,1.0000
 30671,'1 ',     4.000,    -4.000,    13.000,    -4.000,1.00000,  3061,    21.400,   0.00000,   0.20300,   0.00000,   0.00000,1.00000,1,   13.0,    15.000,     4.000,   3,1.0000
 30671,'2 ',     4.000,    -1.000,     3.000,    -1.000,1.00000,  3061,     5.700,   0.00000,   0.17800,   0.00000,   0.00000,1.00000,1,   13.0,     4.000,     1.000,   3,1.0000
 31002,'1 ',     0.893,    -0.280,    -0.280,    -0.280,1.04000,     0,     2.685,   0.00000,   0.25400,   0.00000,   0.06000,1.00000,1,  100.0,     2.550,     0.000,   1,1.0000
 31002,'2 ',     0.298,    -0.280,    -0.280,    -0.360,1.04000,     0,     0.895,   0.00000,   0.25400,   0.00000,   0.06000,1.00000,1,  100.0,     0.850,     0.000,   1,1.0000
 31004,'1 ',     0.893,    -0.280,    -0.280,    -0.280,1.04000,     0,     2.685,   0.00000,   0.25400,   0.00000,   0.20000,1.00000,1,  100.0,     2.550,     0.000,   2,1.0000
 31271,'1 ',   409.900,     0.000,   200.000,  -114.000,1.04000,  3122,   500.000,   0.00000,   0.27000,   0.00000,   0.00000,1.00000,0,  200.0,   409.900,   163.000,   4,1.0000
 32404,'1 ',     4.100,     0.000,     1.000,    -1.000,1.04000,     0,     4.800,   0.00000,   0.25000,   0.00000,   0.06000,1.00000,0,    1.0,     4.100,     0.000,   2,1.0000
 32604,'1 ',     7.500,     0.000,     1.000,    -1.000,1.05000,     0,     8.500,   0.00000,   0.14800,   0.00000,   0.10000,1.00000,0,    1.0,     7.500,     0.000,   5,1.0000
 33004,'1 ',     3.272,    -1.020,    -1.020,    -1.020,1.04000,     0,     9.845,   0.00000,   0.25400,   0.00000,   0.20000,1.00000,1,  100.0,     9.350,     0.000,   2,1.0000
 35002,'1 ',     1.750,    -1.640,    -1.640,    -2.130,1.04000,     0,     6.045,   0.00000,   0.25400,   0.00000,   0.06717,1.00000,1,  100.0,     5.000,     0.000,   2,1.0000
 35074,'4 ',    25.000,   -17.565,    60.000,   -20.000,1.00000,  3501,   121.100,   0.00500,   0.23000,   0.00000,   0.00000,1.00000,1,   60.0,   100.000,    25.000,   3,1.0000
 35771,'1 ',   222.000,   -12.745,   250.000,   -80.000,1.02000,  3572,   500.000,   0.00000,   0.22500,   0.00000,   0.00000,1.00000,1,  250.0,   442.960,   222.000,   1,1.0000
 35802,'1 ',     0.893,    -0.280,    -0.280,    -0.280,1.04000,     0,     2.685,   0.00000,   0.25400,   0.00000,   0.06000,1.00000,1,  100.0,     2.550,     0.000,   4,1.0000
 35802,'2 ',     0.893,    -0.280,    -0.280,    -0.280,1.04000,     0,     2.685,   0.00000,   0.25400,   0.00000,   0.06000,1.00000,1,  100.0,     2.550,     0.000,   4,1.0000
 35802,'3 ',     1.190,    -1.120,    -1.120,    -1.450,1.04000,     0,     3.600,   0.00000,   0.25400,   0.00000,   0.05400,1.00000,1,  100.0,     3.400,     0.000,   1,1.0000
 35804,'1 ',     5.250,    -1.640,    -1.640,    -1.640,1.04000,     0,    17.250,   0.00000,   0.25400,   0.00000,   0.20000,1.00000,1,  100.0,    15.000,     0.000,   4,1.0000
 35804,'2 ',     1.743,    -0.540,    -0.540,    -0.540,1.04000,     0,     5.727,   0.00000,   0.25400,   0.00000,   0.20000,1.00000,1,  100.0,     4.980,     0.000,   4,1.0000
 35804,'3 ',     4.158,    -1.300,    -1.300,    -1.300,1.04000,     0,    13.662,   0.00000,   0.25400,   0.00000,   0.20000,1.00000,1,  100.0,    11.880,     0.000,   4,1.0000
 35804,'6 ',     1.785,    -0.560,    -0.560,    -0.560,1.04000,     0,     5.370,   0.00000,   0.25400,   0.00000,   0.20000,1.00000,1,  100.0,     5.100,     0.000,   2,1.0000
 38002,'1 ',     0.595,    -0.560,    -0.560,    -0.730,1.04000,     0,     1.790,   0.00000,   0.25400,   0.00000,   0.06000,1.00000,1,  100.0,     1.700,     0.000,   1,1.0000
 38204,'1 ',     3.675,    -1.150,    -1.150,    -1.150,1.04000,     0,    12.019,   0.00000,   0.25400,   0.00000,   0.20000,1.00000,1,  100.0,    10.500,     0.000,   4,1.0000
...